28
G - 26-asp
O          0.65334        0.60567       -2.89691
H          1.28004        0.91917       -3.56161
H          1.02564       -0.21463       -2.50761
O         -1.31286       -2.07763       -0.55661
H         -0.39926       -2.06153       -0.92281
H         -1.73246       -2.86103       -0.93831
O         -1.68136       -0.97493        1.99559
H         -1.53816       -1.59773        1.25429
H         -2.14036       -1.48483        2.67719
O          0.62974        2.65217        0.83169
H          0.61294        1.97357        1.54039
H          0.55154        3.51387        1.26149
O          2.47814       -0.62473        0.66789
H          3.37084       -0.75183        1.01259
H          1.93794       -0.30503        1.41679
O         -2.49326        0.45647       -0.58211
H         -2.75846        0.48307        0.34999
H         -2.17826       -0.46383       -0.70681
O          1.27544       -1.68053       -1.46831
H          1.80344       -1.38743       -0.68171
H          1.76704       -2.42143       -1.84951
O          0.61114        0.43837        2.50019
H          0.80444        0.49257        3.44649
H         -0.22056       -0.08913        2.43289
O         -0.67466        2.08747       -1.29871
H         -0.14876        2.34297       -0.46701
H         -0.08226        1.56267       -1.93971
H         -1.44096        1.46817       -1.00961
