28
M - 37-asp
O         -0.77725       -0.80414       -0.37284
H         -1.31175       -0.19024       -0.91524
H         -1.40045       -1.39704        0.07806
O          1.11595        1.36636       -2.57424
H          1.44235        0.45726       -2.40304
H          1.69295        1.73396       -3.25714
O          1.56625       -1.19264       -1.57024
H          1.69705       -1.99414       -2.09514
H          0.64815       -1.24954       -1.19934
O         -1.22215       -0.05724        2.86046
H         -1.58605       -0.90604        2.54526
H         -1.35165       -0.03944        3.81776
O          0.25525        2.47066       -0.13694
H         -0.66655        2.37156       -0.43164
H          0.75595        2.23446       -0.94484
O         -2.28735       -2.37094        1.58286
H         -3.25195       -2.45764        1.58056
H         -1.96885       -3.26244        1.78696
O         -1.63595        1.30096       -1.98614
H         -2.39405        1.49076       -2.55464
H         -0.84815        1.36196       -2.55954
O          2.52575       -0.74724        0.97316
H          2.40145       -0.97584        0.02666
H          3.47745       -0.69504        1.13056
O          0.88965        1.03326        1.84296
H          0.60195        1.61586        1.03676
H          0.08075        0.56496        2.22436
H          1.55115        0.33766        1.51446
