28
N - 4 - MD
O          1.20501        0.98142        1.27709
H          0.38671        0.37702        1.29189
H          2.02531        0.38812        1.06029
H          1.07731        1.66012        0.52809
O         -0.88139       -0.52938        1.13349
H         -0.99439       -1.24768        1.79859
H         -0.81879       -0.96568        0.25609
O          0.86501        2.56872       -0.70011
H          0.08331        2.34712       -1.25191
H          0.89391        3.53182       -0.62901
O          3.06851       -0.61138        0.71499
H          2.94531       -0.90318       -0.22251
H          4.00491       -0.40208        0.82849
O         -2.90369        1.20902        0.16099
H         -2.37929        0.66182        0.77409
H         -3.50069        1.74102        0.70159
O         -1.19729       -2.52738        2.95469
H         -0.49589       -2.90578        3.50149
H         -2.01879       -2.74398        3.41529
O         -0.55469       -1.12688       -1.57191
H         -0.86699       -0.25568       -1.90601
H         -1.10239       -1.78318       -2.02541
O         -1.33949        1.50572       -1.98271
H         -1.73419        1.85722       -2.79271
H         -2.04579        1.54222       -1.29091
O          2.29231       -1.22018       -1.77221
H          1.32291       -1.31418       -1.83381
H          2.66311       -1.83478       -2.41781
