30
10-DP2
O          0.18082       -1.22086        2.24784
H          0.57332       -0.32260        2.27556
H         -0.78635       -1.07715        2.10998
O         -2.49049       -0.73196        1.60800
H         -2.57826       -1.08868        0.70157
H         -2.58080        0.22569        1.44831
O          0.16294        2.60710       -0.09437
H         -0.78157        2.34009       -0.10197
H          0.55071        2.18008       -0.88888
O          3.01220       -0.01280       -0.12009
H          2.67854        0.46609        0.67041
H          2.63635       -0.91553       -0.01815
O          1.45805        1.28351        1.84313
H          1.75196        1.91517        2.51753
H          0.93876        1.82247        1.17617
O          1.37773       -2.28671        0.14431
H          1.66031       -3.18348        0.38193
H          0.87777       -1.93959        0.94916
O         -2.48986       -0.85169       -1.25163
H         -3.10046       -1.25683       -1.88645
H         -1.56795       -1.08945       -1.58210
O         -2.49861        1.62938       -0.09887
H         -2.55523        0.83627       -0.68716
H         -3.22690        2.21200       -0.36357
O         -0.05955       -1.44881       -2.11847
H          0.42939       -1.89489       -1.39072
H          0.43111       -0.60737       -2.24696
O          1.42273        0.96581       -2.02676
H          2.08997        0.62170       -1.35754
H          1.95163        1.29214       -2.77182
