30
10-DP4
O          0.24123        0.55733       -2.30905
H          1.11496        0.76622       -1.91445
H         -0.36979        1.21667       -1.91004
O         -0.35460        0.11460        2.28840
H          0.13311        0.89316        1.88345
H         -0.26832        0.23324        3.24751
O          3.35203       -1.17820        0.46604
H          2.47761       -1.56602        0.75493
H          3.78162       -1.88803       -0.03471
O         -2.74164        0.71656        0.86874
H         -2.98473       -0.13055        0.42622
H         -2.04029        0.46376        1.50674
O          0.79323        2.20729        1.07631
H          0.07347        2.46485        0.45965
H          1.50576        1.88232        0.48397
O         -3.06876       -1.75629       -0.38578
H         -3.06160       -2.45882        0.28227
H         -2.18936       -1.82490       -0.82388
O          2.58802        1.06136       -0.79823
H          2.92684        0.22284       -0.37212
H          3.37687        1.56894       -1.04391
O          0.88981       -2.11254        1.04788
H          0.42172       -2.11322        0.18578
H          0.43906       -1.41233        1.56928
O         -1.33975        2.28078       -0.75564
H         -1.93709        1.69893       -0.19079
H         -1.89501        3.02085       -1.04611
O         -0.47797       -1.84797       -1.43613
H         -0.21931       -0.93607       -1.77642
H         -0.33830       -2.44523       -2.18774
