21
7-BI3
O          2.13163       -1.32681        1.39212
H          1.30133       -0.84862        1.14311
H          1.96463       -2.24846        1.14133
O          1.69345        1.49956       -1.26932
H          1.84143        2.42303       -1.01534
H          2.53313        1.03181       -1.03107
O          3.81690        0.02520       -0.31223
H          4.47642        0.45600        0.25205
H          3.29580       -0.54492        0.30771
O         -0.00793        0.09052        0.36597
H          0.52729        0.67052       -0.23490
H         -0.49806       -0.52469       -0.23991
O         -3.82322       -0.20458       -0.31311
H         -4.27888        0.42257       -0.89452
H         -3.36324        0.36497        0.35339
O         -2.26282        1.31373        1.37727
H         -1.38662        0.96588        1.07412
H         -2.32333        1.04289        2.30616
O         -1.56830       -1.49661       -1.24019
H         -2.45435       -1.13616       -0.98515
H         -1.47332       -1.28291       -2.18100
