21
7-HM1
O          2.99021       -1.13488        0.14901
H          2.17362       -1.69089        0.05432
H          3.36795       -1.41982        0.99485
O         -1.80715        1.25269       -0.80571
H         -2.13392        1.76178       -1.56323
H         -1.03743        1.78298       -0.45970
O         -3.31464       -0.19429        1.10939
H         -2.92303        0.49991        0.53690
H         -4.23377       -0.26688        0.81039
O          0.25288        2.76981        0.05744
H          1.13558        2.31514        0.05230
H          0.14997        3.07677        0.97098
O         -1.57708       -1.59689       -0.64886
H         -1.45715       -0.67957       -0.96579
H         -2.19292       -1.45503        0.10007
O          2.69912        1.58031        0.17566
H          2.74639        0.58926        0.18229
H          3.29684        1.84335       -0.53991
O          0.79623       -2.75228        0.04003
H         -0.07296       -2.31174       -0.15106
H          0.86423       -3.44101       -0.63801
