21
7-PR2
O         -0.89266       -1.32371       -1.56888
H         -1.66877       -1.23566       -0.98035
H         -0.19582       -1.67661       -0.97864
O         -0.99568        1.43708       -1.31198
H         -0.80477        0.52401       -1.63946
H         -1.79559        1.26546       -0.77399
O         -0.38948       -0.13655        2.03597
H          0.14703       -0.85943        1.64685
H          0.08782        0.67055        1.75197
O          2.77936        0.11651       -0.49567
H          2.25513        0.86808       -0.12776
H          2.70922        0.21751       -1.45807
O          0.90743        1.88521        0.49034
H          1.01138        2.83921        0.63138
H          0.19057        1.78571       -0.20955
O          1.14088       -1.87088        0.37354
H          1.82475       -1.22444        0.05243
H          1.62318       -2.68437        0.58759
O         -2.56970       -0.12191        0.41351
H         -1.83569       -0.13455        1.08684
H         -3.38959       -0.24148        0.91600
