27
9-S4DAh-2
O          2.36629       -1.38855       -0.15919
H          1.72569       -1.51255       -0.89414
H          1.83533       -1.59224        0.64155
O          2.46767        1.27759       -0.08348
H          2.53243        0.27565       -0.11085
H          3.37889        1.60400       -0.14195
O         -1.50947       -2.02937       -0.05129
H         -2.23482       -1.37333        0.07201
H         -0.94409       -1.93620        0.74548
O          0.19015       -1.32804       -1.95882
H          0.07133       -1.92271       -2.71557
H         -0.50662       -1.60412       -1.28517
O         -1.43000        2.04464        0.08867
H         -1.64140        2.98888        0.01907
H         -0.83007        1.84618       -0.69455
O          0.28907        1.48142       -1.86475
H          0.20975        0.52334       -2.07209
H          1.14573        1.54486       -1.38837
O          0.44219       -1.42982        1.90664
H          0.43428       -0.43226        2.00004
H          0.49389       -1.77583        2.81104
O          0.54286        1.25362        1.98343
H         -0.21674        1.59868        1.46594
H          1.31590        1.42974        1.40500
O         -3.37259        0.04166        0.20643
H         -2.76389        0.81536        0.20578
H         -3.89478        0.13736       -0.60428
