30
10-DP1
O          1.38682        1.95611        1.18040
H          1.65978        2.82179        1.52176
H          0.90919        2.14525        0.31278
O          1.33808       -2.01852        1.15088
H          1.60591       -2.89487        1.46791
H          0.85107       -2.17905        0.28740
O         -2.51370        0.02359        1.45373
H         -1.59409        0.01349        1.86638
H         -3.12932        0.00762        2.20251
O         -0.09503       -0.01426        2.52783
H          0.39634       -0.79148        2.18212
H          0.41165        0.75649        2.18623
O          3.02683       -0.03456        0.05457
H          2.65410        0.74025        0.53058
H          2.63643       -0.80178        0.52677
O          0.13877       -2.28988       -1.21985
H          0.58059       -1.57448       -1.72865
H         -0.80285       -2.01643       -1.17257
O         -2.44934        1.57353       -0.95061
H         -2.55509        1.34328       -0.00594
H         -2.54172        0.69994       -1.37383
O          1.53221       -0.03017       -2.17278
H          2.16750       -0.02738       -1.39622
H          2.09232       -0.01788       -2.96478
O          0.23013        2.30672       -1.17834
H         -0.74001        2.12259       -1.14967
H          0.61381        1.56955       -1.69856
O         -2.51544       -1.34057       -0.91552
H         -2.58884       -1.02950        0.02059
H         -3.26149       -1.94335       -1.05724
