30
10-OB4
O          1.10205       -1.66944       -1.72343
H          1.37617       -2.36069       -2.34608
H          1.83331       -1.61066       -1.03820
O          0.83199       -1.16915        2.14206
H          0.11387       -1.34549        1.47731
H          0.62278       -1.71406        2.91630
O          2.82287        1.46122       -0.08660
H          3.52318        2.08909       -0.32292
H          2.21094        1.42381       -0.88070
O          2.91155       -1.32926        0.22115
H          2.35420       -1.39092        1.02577
H          3.10760       -0.36848        0.14995
O         -3.75096       -1.35649       -0.13626
H         -4.10033       -1.76617        0.66978
H         -2.78129       -1.53410       -0.10541
O         -3.73374        1.42825       -0.02190
H         -3.84776        0.44715       -0.04624
H         -4.17268        1.74417       -0.82631
O         -0.96974       -1.37976        0.09808
H         -0.99658       -0.38928       -0.04490
H         -0.38793       -1.69333       -0.63375
O         -1.00237        1.29535       -0.23680
H         -0.50399        1.59416        0.57042
H         -1.95487        1.54369       -0.13109
O          0.72457        1.69769        1.82458
H          0.77815        0.78095        2.16335
H          1.54344        1.79110        1.29287
O          1.06478        1.17135       -2.08990
H          1.05040        0.19743       -2.20055
H          0.22348        1.36356       -1.61744
