30
10-OB6
O         -1.21997        1.81531       -1.56620
H         -1.56037        2.54138       -2.11172
H         -1.89421        1.68466       -0.83408
O         -0.68201        0.98539        2.23251
H         -0.01968        1.22519        1.53025
H         -0.41174        1.46484        3.03096
O         -2.80920       -1.46505       -0.07656
H         -3.51730       -2.08393       -0.31335
H         -2.25455       -1.35611       -0.90508
O         -2.88093        1.29031        0.46907
H         -2.27734        1.29069        1.24223
H         -3.08190        0.33768        0.33402
O          3.74433        1.36389        0.04166
H          2.77466        1.54012        0.07036
H          4.04949        1.79205       -0.77272
O          3.71459       -1.41087       -0.21483
H          3.83459       -0.43395       -0.13054
H          4.04649       -1.77216        0.62104
O          0.95670        1.36902        0.08624
H          0.95851        0.39633       -0.14973
H          0.34222        1.75957       -0.57777
O          0.98554       -1.26442       -0.48517
H          0.52756       -1.62226        0.32149
H          1.94310       -1.50859       -0.42649
O         -0.58881       -1.83832        1.66132
H         -0.61939       -0.95267        2.07765
H         -1.44399       -1.89387        1.18388
O         -1.20465       -0.99160       -2.17289
H         -1.19339       -0.01176       -2.19668
H         -0.32743       -1.22631       -1.79482
