27
9-D2dDAh
O          0.79482        1.60709       -1.73397
H          0.56867        0.69282       -2.01461
H          0.01465        1.90232       -1.21634
O          0.38562        1.15411        2.02333
H          0.23490        0.18598        2.11103
H          1.26164        1.21803        1.58561
O          2.14394       -1.65578       -0.11878
H          2.51687       -0.76184        0.04036
H          1.56251       -1.80818        0.65854
O         -1.69865       -1.93697       -0.14566
H         -1.13687       -1.73852       -0.92464
H         -2.36971       -1.21474       -0.12890
O          0.31156       -1.16739       -2.01250
H          0.50931       -1.68089       -2.81164
H          1.03553       -1.40604       -1.35894
O         -3.35694        0.31050       -0.14083
H         -3.72361        0.48283       -1.02123
H         -2.67781        1.01198       -0.01093
O          2.56027        1.10984        0.22302
H          1.97501        1.36133       -0.55091
H          3.35808        1.65535        0.14494
O         -1.25357        2.12780        0.16589
H         -0.68101        1.75732        0.90738
H         -1.47200        3.03017        0.44866
O          0.08413       -1.63127        1.80239
H         -0.64729       -1.76708        1.12433
H         -0.09826       -2.26437        2.51406
