17
Coordinates from ORCA-job ofinal-2700
  S       0.099523      1.741594      0.021532
  O       0.837404      1.468125     -1.266762
  O      -0.999051      0.706385      0.244714
  O       1.291863      1.337863      1.156136
  O      -0.296750      3.135686      0.317931
  H       1.065016      1.854497      1.949443
  H      -0.584964     -0.485645     -0.714434
  N      -0.153284     -1.197243     -1.389596
  H       0.866548     -1.197380     -1.162395
  H      -0.237061     -0.787072     -2.322467
  C      -0.774288     -2.539682     -1.292291
  H      -0.269315     -3.237383     -1.971589
  H      -1.837552     -2.467413     -1.550778
  H      -0.674096     -2.891060     -0.258361
  O       2.540382     -0.661483     -1.017445
  H       2.194743      0.259269     -1.061649
  H       3.011883     -0.689059     -0.173988
