20
Coordinates from ORCA-job ofinal-101
  S      -1.446593      1.199014      0.659675
  O      -0.751611      2.036007      1.716622
  O      -1.135840     -0.269926      0.789283
  O      -3.071360      1.339939      0.957848
  O      -1.316009      1.756794     -0.725347
  H      -3.237817      0.804827      1.754713
  H       1.677660      2.698956     -0.099720
  N       1.794481      2.120229      0.753166
  H       1.892964      1.122769      0.467167
  H       0.862872      2.165725      1.241429
  C       2.905404      2.576523      1.621424
  H       2.943116      1.940358      2.513791
  H       2.725588      3.617380      1.915974
  H       3.854045      2.503841      1.075526
  O       0.659836      3.560391     -1.307050
  H       0.660349      3.789986     -2.243631
  H      -0.150596      3.015376     -1.172215
  O       1.541581     -0.604124      0.264736
  H       1.636122     -1.101799     -0.557138
  H       0.569809     -0.608263      0.444743
