20
Coordinates from ORCA-job ofinal-351
  S      -1.409481      2.346062      1.330955
  O      -0.474462      3.344751      0.677041
  O      -0.883069      1.835666      2.647455
  O      -2.794208      3.183249      1.693057
  O      -1.903428      1.283652      0.394762
  H      -2.567643      3.744756      2.456261
  H       0.924665      1.229831     -1.053057
  N       1.444631      1.632092     -0.248799
  H       1.434875      0.929540      0.524498
  H       0.837132      2.419273      0.090102
  C       2.816762      2.073498     -0.591794
  H       3.286832      2.502049      0.301448
  H       2.765733      2.832581     -1.381742
  H       3.402497      1.214178     -0.940497
  O      -0.552410      0.629202     -1.883976
  H      -1.170616      0.878111     -1.156925
  H      -0.997652      0.898588     -2.696398
  O       1.146081      0.080124      2.038235
  H       0.403476      0.632259      2.383193
  H       0.791282     -0.818460      2.035180
