23
Coordinates from ORCA-job ofinal-7251
  O       2.374141     -0.269900      0.759555
  S       1.495957     -0.635115     -0.413915
  O       0.296478     -1.454563     -0.000454
  O       2.414830     -1.605643     -1.400170
  H       2.664330     -2.376419     -0.859101
  O       1.169384      0.513761     -1.323293
  N      -0.453731      1.584118      1.349207
  H      -0.069493      0.844469      1.978529
  H      -0.986749      1.108966      0.586960
  H       0.354656      2.085636      0.919265
  C      -1.325666      2.520549      2.101192
  H      -0.747808      2.978049      2.913193
  H      -2.175359      1.965917      2.517078
  H      -1.689508      3.299539      1.420512
  O      -1.900577      0.119874     -0.556835
  H      -1.803853      0.437001     -1.465694
  H      -1.221371     -0.590076     -0.497626
  O       0.765117     -0.334332      2.989638
  H       1.447151     -0.462118      2.289982
  H       0.315228     -1.189951      3.019400
  O       1.680893      2.846794      0.035760
  H       1.692595      2.085511     -0.587545
  H       2.540359      2.787929      0.475361
