23
Coordinates from ORCA-job ofinal-5151
  O      -0.668663      0.666899      1.290112
  S      -0.181063      0.939478     -0.111771
  O       0.842682      2.076733     -0.126916
  O      -1.553401      1.605500     -0.805421
  H      -1.453316      1.460115     -1.763218
  O       0.208868     -0.224917     -0.939872
  N       0.669372      3.105955      2.439801
  H      -0.335474      3.283703      2.610826
  H       0.742365      2.868227      1.424537
  H       0.933890      2.217873      2.930553
  C       1.560695      4.228934      2.815586
  H       1.469014      4.423676      3.891048
  H       1.277549      5.125031      2.249979
  H       2.592501      3.946138      2.573869
  O      -2.112095      2.759634      2.410764
  H      -1.844978      1.942712      1.937597
  H      -2.840019      3.117502      1.887238
  O       3.156871      1.380065      1.199409
  H       2.449147      1.511989      0.531515
  H       3.870050      0.936636      0.723280
  O       1.476037      0.600272      3.318700
  H       2.213070      0.612317      2.674635
  H       0.763898      0.160532      2.821746
