23
Coordinates from ORCA-job ofinal-2001
  O       0.145844      1.538917      1.223830
  S       0.639594      1.896126      2.617890
  O       0.249343      3.229936      3.129581
  O       2.293560      1.928091      2.352368
  H       2.653803      2.507243      3.047815
  O       0.421575      0.747711      3.586482
  N      -1.222225     -0.854192      1.590210
  H      -0.831337      0.084938      1.357017
  H      -1.884041     -0.695124      2.368608
  H      -0.397575     -1.383707      1.964240
  C      -1.818259     -1.519302      0.406784
  H      -1.040050     -1.616428     -0.359782
  H      -2.646243     -0.909993      0.024493
  H      -2.187907     -2.511028      0.694406
  O       1.549593     -0.502144     -0.010442
  H       1.251774      0.368551      0.329328
  H       2.324015     -0.304167     -0.551777
  O       1.217707     -1.811915      2.480609
  H       1.648716     -1.505261      1.658641
  H       1.277379     -1.029722      3.060960
  O      -2.220930      0.076377      4.032677
  H      -1.327699      0.479784      4.089497
  H      -2.820637      0.732309      4.408565
