26
Coordinates from ORCA-job ofinal-1801
  O       0.965204     -0.086474      1.288788
  S       1.100025      1.392474      1.030803
  O       1.614814      2.186405      2.195902
  O       2.293158      1.421118     -0.119699
  H       2.449922      2.361948     -0.319886
  O      -0.121311      2.005955      0.381638
  N      -2.212651      0.222143      1.174711
  H      -1.862624      0.052454      2.146677
  H      -1.962551     -0.607114      0.610463
  H      -1.626818      0.997571      0.815607
  C      -3.660135      0.546899      1.139896
  H      -4.224207     -0.288855      1.571834
  H      -3.968955      0.703308      0.099065
  H      -3.813591      1.460802      1.723444
  O      -0.860061     -0.340898      3.535699
  H      -0.656854      0.449503      4.073039
  H      -0.047246     -0.451695      3.008176
  O      -0.704822     -1.579461     -0.338497
  H       0.060979     -1.142854      0.091876
  H      -0.418469     -2.482121     -0.520897
  O      -1.984041      2.932401      2.424456
  H      -1.273041      3.015332      1.766675
  H      -1.494277      2.896154      3.263678
  O       0.000799      2.214299      4.431635
  H       0.674703      2.260663      3.715841
  H       0.437048      2.564044      5.218077
