26
Coordinates from ORCA-job ofinal-6101
  O      -2.407220      2.383876     -0.665509
  S      -2.983729      1.583119      0.469930
  O      -2.055224      1.432503      1.652900
  O      -4.193338      2.527404      1.126920
  H      -4.788072      2.744232      0.386130
  O      -3.629399      0.295709      0.049915
  N       0.490490      0.333667      0.838599
  H      -0.257128     -0.274915      0.447575
  H       0.339706      0.441598      1.859822
  H       0.390642      1.292473      0.425168
  C       1.836047     -0.224028      0.561022
  H       2.594450      0.432872      1.003484
  H       1.985749     -0.280849     -0.524070
  H       1.912562     -1.226253      0.999960
  O       0.451620      0.954593      3.608217
  H       0.165193      1.884146      3.486027
  H      -0.269056      0.556592      4.115334
  O      -0.538078      3.393653      2.618115
  H      -1.264427      2.821764      2.261953
  H      -0.979668      4.126809      3.065477
  O      -1.465874     -1.391367     -0.218485
  H      -1.470317     -1.671556     -1.142775
  H      -2.312000     -0.894329     -0.117979
  O       0.282296      2.919679     -0.150937
  H       0.212517      3.423995      0.678644
  H      -0.651741      2.874611     -0.452433
