26
Coordinates from ORCA-job ofinal-5101
  O      -1.731147      0.554858     -0.519608
  S      -1.987507      2.040529     -0.391433
  O      -1.273806      2.861212     -1.421989
  O      -3.583257      2.285392     -0.785037
  H      -4.100802      1.897065     -0.056839
  O      -1.837345      2.523287      1.031700
  N       1.333529      0.746144     -0.583134
  H       1.111028     -0.105501     -0.029708
  H       1.093213      1.578187     -0.003232
  H       0.760421      0.767389     -1.450942
  C       2.778902      0.775959     -0.920705
  H       3.028632     -0.109634     -1.517332
  H       3.362164      0.777142      0.007799
  H       2.990844      1.680841     -1.502646
  O       1.013432     -1.383324      1.190811
  H       0.960200     -2.338186      1.062193
  H       0.156082     -1.133719      1.619509
  O       0.120092      1.168907     -3.078537
  H      -0.472899      0.509355     -3.462382
  H      -0.492107      1.817751     -2.662395
  O       0.887455      2.944833      1.122820
  H       1.061206      3.825323      0.763621
  H      -0.093801      2.921235      1.205722
  O      -1.385023     -0.476979      2.022939
  H      -1.426899      0.303312      2.592943
  H      -1.634612     -0.118383      1.141864
