29
Coordinates from ORCA-job ofinal-2701
  O      17.109565     -8.943979     -0.618005
  S      18.410486     -8.282453     -0.985848
  O      19.570015     -8.647872     -0.086945
  O      18.731984     -8.996678     -2.450339
  H      19.589367     -8.636832     -2.742596
  O      18.310227     -6.806414     -1.240163
  N      17.884651     -8.853278      2.894614
  H      18.211794     -9.699477      2.365003
  H      17.030199     -8.464564      2.436182
  H      18.614402     -8.116347      2.768357
  C      17.651001     -9.172832      4.323151
  H      16.866088     -9.935194      4.398404
  H      17.335714     -8.266041      4.853661
  H      18.579777     -9.556080      4.762798
  O      16.936443    -11.702196     -0.225549
  H      16.967269    -12.237883     -1.027772
  H      16.932346    -10.775621     -0.541247
  O      18.989000    -10.958327      1.497414
  H      19.393640    -10.350813      0.848713
  H      18.333355    -11.442273      0.951992
  O      15.821743     -7.558152      1.522022
  H      16.184752     -6.660621      1.399111
  H      16.001308     -7.981501      0.660504
  O      17.560528     -5.324974      0.931950
  H      17.808158     -5.740936      0.072972
  H      17.404171     -4.394427      0.727256
  O      19.685940     -6.844379      2.161301
  H      19.105423     -6.115241      1.872696
  H      19.899665     -7.298614      1.323364
