32
Coordinates from ORCA-job ofinal-6051
  O      17.832647     -7.699721      2.781343
  S      18.283842     -8.885723      1.954856
  O      17.424177    -10.093607      2.147589
  O      17.945915     -8.443633      0.361421
  H      18.782562     -8.064122      0.001257
  O      19.766895     -9.103227      1.993698
  N      16.095807     -5.970218      1.069307
  H      15.838532     -6.258544      2.036794
  H      15.800078     -6.766831      0.466693
  H      17.128950     -5.850744      1.001620
  C      15.406539     -4.714740      0.683083
  H      14.322092     -4.860946      0.755762
  H      15.681138     -4.455848     -0.346347
  H      15.721019     -3.911653      1.360073
  O      19.429837     -5.573154      3.420967
  H      20.282756     -5.734077      3.842491
  H      19.012569     -6.456692      3.334010
  O      14.741618     -9.531551      2.233778
  H      15.689370     -9.808131      2.272523
  H      14.242238    -10.317975      2.487623
  O      18.769557     -5.157259      0.769681
  H      19.122483     -5.131638      1.686060
  H      19.410497     -5.728961      0.315568
  O      20.484721     -7.420694     -0.042547
  H      20.581126     -8.016896      0.733871
  H      21.137670     -7.720530     -0.687712
  O      15.203948     -7.005090      3.554005
  H      16.108227     -7.309501      3.749525
  H      14.787570     -7.833419      3.248630
  O      15.143925     -8.262468     -0.287391
  H      14.782018     -8.772190      0.464395
  H      16.025677     -8.656209     -0.398627
