33
../43p4A-4 ∆∆E[~CCSD(T)/CBS] = 0.06 kcal/mol
O    -2.611124     1.480408     0.617757
H    -2.898937     0.581586     0.357041
H    -1.974584     1.729385    -0.075428
O     1.121466    -1.978734    -2.069412
H     1.355687    -2.797997    -2.521576
H     1.263121    -2.145112    -1.089903
O    -0.855948    -1.668802     1.846096
H    -0.908376    -0.818311     2.318424
H    -1.606322    -1.635968     1.224293
O     0.988408     2.067394     1.166053
H     0.399531     1.728309     1.869929
H     1.759879     1.466060     1.146692
O    -2.890628    -1.207217    -0.141378
H    -2.338050    -1.062571    -0.955627
H    -3.658420    -1.717286    -0.426338
O    -0.248058     1.999995    -1.161191
H    -0.274102     2.894119    -1.527337
H     0.228886     2.077609    -0.280714
O     1.507543    -2.153053     0.524279
H     2.093639    -1.405185     0.738908
H     0.682128    -1.992955     1.039730
O     2.265741     0.577131    -1.972735
H     1.947143    -0.321174    -2.196776
H     1.451419     1.104748    -1.897146
O    -1.269513    -0.545034    -2.151804
H    -0.926530     0.337855    -1.926892
H    -0.472071    -1.112108    -2.205153
O    -1.071665     1.064887     2.775642
H    -1.733660     1.287999     2.069481
H    -1.423960     1.429469     3.596692
O     3.064515     0.280848     0.580817
H     4.008582     0.420752     0.723778
H     2.911565     0.415073    -0.391020
