33
../43p4A-3 ∆∆E[~CCSD(T)/CBS] = 0.07 kcal/mol
O     2.594164     0.546877    -0.047673
H     2.491187     0.069602    -0.890526
H     2.177301     1.411851    -0.217578
O     1.411770    -0.677594     2.118479
H     1.061568    -1.523674     1.783657
H     1.874107    -0.269818     1.349016
O     1.017088     2.888976    -0.631650
H     0.212678     2.795650    -0.054740
H     1.237307     3.828322    -0.633581
O    -0.317676    -2.266376    -1.498152
H    -0.982583    -1.555737    -1.495274
H     0.470546    -1.854402    -1.907299
O    -0.062740    -2.917470     1.081172
H    -0.089001    -2.781488     0.097274
H     0.041311    -3.867158     1.215770
O    -1.214812     2.335738     0.717324
H    -1.038306     1.854859     1.553862
H    -1.678822     1.685709     0.162414
O    -2.181473     0.002754    -0.922176
H    -2.234711    -0.440218    -0.022775
H    -3.085489    -0.012327    -1.264307
O    -0.086442     1.214032    -2.596042
H     0.285832     1.924414    -2.034681
H    -0.830388     0.864764    -2.073884
O     1.775373    -0.707243    -2.541230
H     1.130171     0.029521    -2.708168
H     2.248049    -0.841372    -3.371885
O    -2.194470    -1.128573     1.465831
H    -1.559559    -1.873299     1.458533
H    -1.814258    -0.510263     2.122138
O    -0.664024     0.718009     2.913292
H    -0.590534     0.958127     3.844686
H     0.182034     0.230043     2.680196
