33
../44p3pA-17 ∆∆E[~CCSD(T)/CBS] = 1.41 kcal/mol
O    -1.011719     2.928182     1.033806
H    -1.006066     2.153272     1.665621
H    -1.201518     3.701214     1.580144
O    -2.845661    -0.810474     0.971193
H    -3.532692    -1.456356     1.176104
H    -2.095735    -1.322994     0.576393
O     1.121312    -3.590606    -1.400764
H     0.682452    -4.236630    -1.967320
H     0.398622    -3.114876    -0.939484
O     2.218989    -1.100439    -2.197827
H     1.367508    -0.699174    -2.438003
H     1.982337    -2.036972    -2.042611
O     1.192574     2.498316    -0.533674
H     0.464824     2.805755     0.055390
H     1.470585     3.274864    -1.035075
O    -1.053353     0.755190     2.549241
H    -0.241333     0.213356     2.477406
H    -1.755699     0.183206     2.184592
O     1.159976    -0.901399     1.985260
H     1.667995    -1.428769     2.614086
H     1.834297    -0.494168     1.363684
O    -2.678442     1.425109    -0.863050
H    -2.299878     2.091212    -0.261426
H    -2.957846     0.710391    -0.261550
O    -0.275277     0.363764    -1.741668
H     0.290674     1.086462    -1.405535
H    -1.181629     0.733849    -1.629189
O    -0.531107    -1.776621    -0.052686
H     0.076456    -1.606504     0.700317
H    -0.368665    -1.010697    -0.660585
O     2.754579     0.190932     0.200821
H     2.660385    -0.292143    -0.654162
H     2.404565     1.078716     0.008202
