33
../44p3pB-5 ∆∆E[~CCSD(T)/CBS] = 0.94 kcal/mol
O     2.111264    -1.562074    -3.311321
H     1.151402    -1.398539    -3.456366
H     2.558627    -1.193601    -4.082074
O     0.969858     2.882524     0.604408
H     1.554956     3.649141     0.572753
H     1.513095     2.136623     0.984521
O    -1.764273    -1.554713     1.384678
H    -2.205799    -0.781387     0.983096
H    -1.189511    -1.161480     2.070542
O     1.694382    -0.947998    -0.656851
H     1.079626    -1.705602    -0.561936
H     2.103092    -1.100425    -1.535762
O     2.146679     0.696616     1.579886
H     1.500856     0.343926     2.222367
H     2.153547     0.036929     0.858182
O    -1.282384     2.226381     2.210040
H    -0.568863     2.653118     1.696237
H    -1.895534     1.899715     1.524942
O    -0.132077    -0.004756     3.154572
H    -0.180818    -0.076075     4.116208
H    -0.583941     0.852285     2.926270
O    -2.527823     0.825946     0.053676
H    -3.264887     0.981824    -0.549697
H    -1.705910     0.883091    -0.498072
O    -0.619510    -1.124619    -3.141074
H    -0.636796    -0.229843    -2.762533
H    -0.754502    -1.700178    -2.363870
O    -0.483776    -2.664641    -0.668831
H    -0.542129    -3.627349    -0.632231
H    -0.988930    -2.333904     0.123735
O    -0.150136     1.041311    -1.211521
H     0.519416     0.352521    -0.983036
H     0.220983     1.852993    -0.812483
