33
../515A-9 ∆∆E[~CCSD(T)/CBS] = 0.91 kcal/mol
O     1.425828     0.562609    -2.383920
H     2.027426     1.107476    -2.906646
H     0.833325     1.213751    -1.907295
O     2.200612    -1.161313    -0.283424
H     2.025927    -0.540559    -1.018943
H     2.345579    -0.595328     0.498727
O    -2.539439     0.853730    -0.469972
H    -2.358801    -0.070624    -0.806310
H    -3.429242     1.069284    -0.775130
O    -1.923113    -1.571787    -1.332902
H    -1.430649    -1.512894    -2.178100
H    -1.298112    -2.014578    -0.725638
O     0.064457    -2.633120     0.392492
H     0.283618    -3.573115     0.381062
H     0.887124    -2.161288     0.091214
O    -1.702948     1.069910     2.235315
H    -2.113431     0.996644     1.351091
H    -1.015520     1.747837     2.115046
O    -0.022328    -1.047239     2.763387
H    -0.733835    -0.379964     2.617128
H    -0.132904    -1.696063     2.042136
O     0.728596     2.572006     1.611213
H     1.088950     3.389451     1.975752
H     1.357419     1.859566     1.873172
O    -0.162418     2.211659    -1.062119
H     0.164731     2.408949    -0.163489
H    -1.050808     1.822143    -0.921838
O    -0.378222    -1.174004    -3.632518
H     0.330525    -0.584121    -3.299244
H     0.081525    -1.894534    -4.080218
O     2.148079     0.298956     2.182661
H     1.356826    -0.248970     2.484154
H     2.816098     0.191054     2.871404
