33
../515A-13 ∆∆E[~CCSD(T)/CBS] = 1.04 kcal/mol
O     0.037849     1.930269    -1.496881
H    -0.123894     1.077101    -1.941379
H     0.900012     1.833539    -1.044282
O    -0.668859    -0.571848    -2.733069
H    -1.272227    -0.421095    -3.471692
H    -1.203733    -1.042289    -2.047840
O    -1.942974    -1.781612    -0.666717
H    -2.652191    -2.430857    -0.752932
H    -2.270630    -1.115614     0.007447
O    -1.670394     2.487266     0.469085
H    -2.149400     3.304846     0.287660
H    -1.087368     2.329061    -0.323899
O     0.485088     1.899784     2.262394
H    -0.306121     2.244727     1.807464
H     0.194674     1.034710     2.617104
O     2.508269    -1.177126    -0.207900
H     2.518702    -0.212357    -0.060732
H     2.440683    -1.278254    -1.177558
O     2.222632     1.618262     0.251679
H     1.655581     1.736781     1.061937
H     2.984442     2.196776     0.379039
O     2.005227    -1.415809    -2.989929
H     1.045672    -1.232360    -3.018345
H     2.112272    -2.272517    -3.420984
O    -2.650439    -0.041210     1.187232
H    -2.437363     0.880845     0.936561
H    -2.054411    -0.228054     1.940595
O     0.368595    -2.254812     1.073887
H     1.164665    -1.899391     0.604792
H    -0.334825    -2.257296     0.401735
O    -0.532522    -0.632998     2.948419
H    -0.496757    -1.056716     3.814486
H    -0.131242    -1.287919     2.304809
