33
../515A-5 ∆∆E[~CCSD(T)/CBS] = 0.60 kcal/mol
O     1.799416    -0.705917    -1.535418
H     1.500669    -1.532973    -1.110881
H     1.018090    -0.392543    -2.037916
O     2.591332     1.110297     0.213941
H     2.328849     0.419140    -0.461267
H     3.549041     1.026163     0.301317
O     0.767783     0.516847     2.292152
H    -0.057086     0.974649     2.031670
H     1.431062     0.766605     1.618060
O     1.431941     3.495895    -0.663160
H     1.942389     2.731084    -0.322849
H     1.553183     4.192821    -0.006856
O    -2.424675    -1.178219     1.206639
H    -1.708028    -1.632092     1.684575
H    -2.308400    -1.486005     0.276389
O    -0.603137     0.189107    -2.647750
H    -0.800309     1.020280    -2.127267
H    -0.782402     0.413286    -3.569118
O     0.135180    -2.054750     2.287138
H     0.349336    -2.434508     3.148131
H     0.433837    -1.100705     2.332675
O    -1.772975     1.379318     1.409282
H    -2.445825     1.840183     1.925680
H    -2.100409     0.436833     1.327578
O     0.738796    -2.991656    -0.212914
H     1.151734    -3.863761    -0.219570
H     0.595483    -2.770721     0.736772
O    -1.780238    -2.041395    -1.331204
H    -1.464986    -1.286842    -1.866813
H    -0.965048    -2.524387    -1.109413
O    -1.061233     2.326056    -1.157136
H    -0.233890     2.821796    -0.984594
H    -1.374393     2.056636    -0.270628
