33
../515A-4 ∆∆E[~CCSD(T)/CBS] = 0.44 kcal/mol
O     1.226358    -1.248350    -2.530562
H     1.689045    -1.387977    -3.365842
H     1.733640    -0.543459    -2.061213
O    -1.958421    -2.384260    -0.130350
H    -2.475591    -3.190256    -0.012955
H    -0.998212    -2.668712    -0.112415
O    -0.032475     0.385009     2.888141
H    -0.854890     0.225220     2.344346
H    -0.243694     0.068184     3.775108
O    -1.897906     1.609416    -1.012726
H    -1.786883     0.804675    -1.591510
H    -2.579420     2.142429    -1.440645
O     0.625042    -2.916462    -0.224230
H     1.098166    -2.329203     0.413393
H     0.915204    -2.573109    -1.087851
O     0.699226     2.594933    -0.502102
H     0.705789     2.801390     0.457201
H    -0.223343     2.337356    -0.699643
O     1.909456    -1.056486     1.335329
H     2.175035    -0.406095     0.659026
H     1.305003    -0.565428     1.923579
O     0.854552     2.927900     2.248252
H     0.518842     2.079597     2.610736
H     0.388047     3.615387     2.738684
O    -2.155155     0.012249     1.340046
H    -2.155072    -0.861677     0.898704
H    -2.171695     0.650101     0.600131
O     2.403771     0.642642    -0.953001
H     1.774175     1.411035    -0.808032
H     3.266820     1.049024    -1.101851
O    -1.553013    -0.667714    -2.343504
H    -0.609350    -0.857811    -2.512927
H    -1.819340    -1.352797    -1.698718
