33
../515B-3 ∆∆E[~CCSD(T)/CBS] = 0.92 kcal/mol
O     1.149632     1.370181     2.221672
H     1.894989     0.819595     1.911734
H     1.016857     2.015495     1.498263
O    -0.857283    -0.328727     2.591748
H    -1.146230    -0.290042     3.511988
H    -0.144280     0.365547     2.509355
O    -2.399872     0.038732     0.309637
H    -3.076044    -0.656780     0.212432
H    -2.019568    -0.071552     1.207679
O     0.368813    -0.085097    -2.811121
H     0.026299    -0.834466    -2.256848
H     0.353047    -0.399407    -3.723359
O    -3.463870    -2.400604    -0.651631
H    -2.532393    -2.573023    -0.886597
H    -3.830593    -3.258652    -0.407418
O    -1.200132     1.913314    -1.439409
H    -1.751606     1.344473    -0.867441
H    -0.779760     1.292555    -2.064019
O     0.818115    -2.255273     1.169080
H     0.270346    -1.768151     1.811861
H     1.638765    -1.726626     1.117297
O     0.841145     2.961714    -0.091228
H     0.838899     3.925258    -0.143165
H     0.024208     2.661306    -0.576729
O     2.515286     0.990712    -1.294534
H     1.871470     0.591126    -1.911957
H     2.062269     1.793323    -0.970992
O    -0.711341    -1.767617    -1.026366
H    -1.211028    -1.047752    -0.582002
H    -0.086388    -2.053148    -0.312584
O     2.960021    -0.403577     0.935599
H     3.904289    -0.560678     1.056932
H     2.873313     0.056680     0.056635
