33
../55p1A-10 ∆∆E[~CCSD(T)/CBS] = 0.73 kcal/mol
O    -3.451609     0.739615    -0.823455
H    -2.870546     1.384144    -0.349512
H    -4.155837     1.267675    -1.216915
O    -0.699725    -2.762439    -0.169631
H    -1.095294    -3.626165    -0.000301
H    -0.532157    -2.365886     0.727706
O     1.826820    -1.939161    -1.162399
H     0.989381    -2.391986    -0.939687
H     1.544513    -1.205704    -1.742616
O     1.894543     1.546700     1.521006
H     2.309001     0.670498     1.388871
H     1.664371     1.851917     0.622535
O     0.028773    -1.663851     2.156035
H     0.989141    -1.540983     2.032623
H    -0.289786    -0.774405     2.405968
O     0.614671     0.194685    -2.643937
H     0.703401     0.214894    -3.605306
H    -0.300566    -0.193404    -2.470691
O    -1.698134     2.365875     0.449296
H    -0.877606     2.444080    -0.070921
H    -1.401195     1.969169     1.291118
O     0.818173     2.361915    -0.993231
H     0.782189     1.644656    -1.670513
H     1.126702     3.145682    -1.464657
O     2.688337    -1.136996     1.230878
H     3.550092    -1.521926     1.431144
H     2.463707    -1.440175     0.309020
O    -0.462838     1.098687     2.693951
H    -0.513879     1.454379     3.590005
H     0.448768     1.327444     2.364543
O    -1.671852    -0.920012    -2.071954
H    -1.491817    -1.594656    -1.387952
H    -2.366973    -0.340363    -1.685267
