33
../55p1A-32 ∆∆E[~CCSD(T)/CBS] = 1.61 kcal/mol
O    -0.906871    -2.302665    -1.179175
H    -1.544456    -1.563963    -1.318368
H    -1.188905    -3.002512    -1.781283
O     1.741786    -1.320404    -1.416645
H     2.136568    -1.378948    -0.525026
H     0.848230    -1.708346    -1.332945
O    -2.526150    -0.088599    -1.289652
H    -1.952333     0.723762    -1.394598
H    -3.294628     0.061535    -1.853805
O     1.698677     1.293439    -1.917113
H     1.733826     0.300762    -1.830199
H     2.224900     1.512766    -2.695388
O     2.886795    -0.944126     1.178664
H     2.617007     0.016505     1.150090
H     3.849508    -0.935308     1.253050
O     2.124776     1.588209     0.889919
H     1.218881     1.799257     1.197387
H     2.072019     1.681335    -0.080294
O    -2.189628     0.070686     1.598050
H    -1.789034    -0.818013     1.759290
H    -2.547811    -0.007972     0.696430
O    -0.567536     2.146825     1.452305
H    -1.162850     1.354220     1.596794
H    -0.858902     2.809730     2.090225
O    -0.949325     2.038854    -1.352872
H    -0.829574     2.271299    -0.410431
H    -0.043646     1.840377    -1.665824
O    -1.094307    -2.428342     1.728399
H    -0.946628    -2.590440     0.780896
H    -0.216552    -2.546327     2.146476
O     1.465706    -2.637142     2.869368
H     1.540445    -2.363892     3.791927
H     2.017376    -1.999042     2.369803
