33
../55p1A-22 ∆∆E[~CCSD(T)/CBS] = 1.20 kcal/mol
O     2.446415     0.987253    -0.346621
H     1.977723     1.046781    -1.228090
H     3.329380     1.346462    -0.502994
O    -1.293823     1.208332     2.466298
H    -1.829190     1.595749     3.169906
H    -0.852430     0.424987     2.878741
O    -1.057071     2.588274    -1.440527
H    -1.374524     3.451978    -1.731061
H    -0.513693     2.756916    -0.624123
O     0.998300     1.022375    -2.572882
H     0.209319     1.561388    -2.366633
H     0.663799     0.111251    -2.700247
O    -0.050944    -0.979588     3.459100
H     0.079610    -1.639273     2.738897
H     0.825738    -0.859778     3.844851
O    -1.645697    -1.951006    -0.764146
H    -1.186044    -2.267043     0.034099
H    -2.017479    -1.073666    -0.507891
O    -2.545779     0.547159    -0.054830
H    -2.173805     1.250396    -0.619018
H    -2.214323     0.768477     0.835231
O     0.272409    -1.684897    -2.558325
H     0.099354    -2.236985    -3.330357
H    -0.513819    -1.807702    -1.949730
O     0.441912     2.691157     0.776892
H     1.199511     2.111619     0.563469
H    -0.069257     2.211099     1.457230
O     2.059352    -1.839443    -0.373577
H     1.597132    -1.869026    -1.235097
H     2.300677    -0.897018    -0.270829
O     0.230526    -2.701962     1.345268
H     0.965952    -2.404114     0.737689
H     0.404919    -3.635032     1.522590
