33
../55p1A-17 ∆∆E[~CCSD(T)/CBS] = 0.84 kcal/mol
O    -1.083677    -2.456598    -1.104362
H    -1.860558    -1.853694    -1.153355
H    -1.320055    -3.224431    -1.639218
O     1.515732    -1.308688    -1.427767
H     1.851640    -1.429798    -0.517610
H     0.613964    -1.681877    -1.404361
O    -3.113328    -0.614049    -0.986764
H    -3.024296     0.175355    -1.587827
H    -4.058353    -0.809706    -0.959718
O     1.796714     1.333218    -1.742596
H     1.676285     0.345908    -1.727427
H     2.436473     1.508685    -2.443183
O     2.210816    -1.195798     1.311711
H     2.195889    -0.199036     1.330611
H     2.994036    -1.457004     1.810823
O     2.073519     1.457254     1.100690
H     1.192956     1.810802     1.342854
H     2.114776     1.580352     0.133221
O    -2.014188     0.117007     1.609147
H    -1.454152    -0.680867     1.755362
H    -2.462780    -0.071520     0.764941
O    -0.576715     2.333237     1.456892
H    -1.140948     1.514041     1.559598
H    -0.883690     2.946967     2.135353
O    -0.624549     2.744721    -1.345356
H    -0.657898     2.729573    -0.368139
H     0.213848     2.291118    -1.560168
O    -0.432244    -2.147436     1.721120
H    -0.607386    -2.475843     0.821946
H     0.507613    -1.881803     1.693407
O    -2.775744     1.588218    -2.423925
H    -2.683479     1.632235    -3.382872
H    -1.971212     2.048145    -2.059709
