18
S1-A1-MA1_dftb-93-4186-pw91 ∆∆Ee=0.64 kc/m ∆∆E0=0.45 kc/m ∆∆G(298K)= 0.49 kc/m
S         -1.16111       -0.13410        0.11574
O         -0.16618        0.69945        0.87471
O         -2.53394        0.39670       -0.06499
O         -0.53960       -0.70257       -1.16111
O         -1.30862       -1.47659        1.13092
H          1.00968       -0.61556       -0.96347
H         -2.19838       -1.82556        0.94603
N          2.18465        2.19916        0.00702
H          2.74122        2.58423        0.76995
H          1.23451        2.05539        0.37151
H          2.12374        2.93069       -0.70134
N          2.04705       -0.54850       -0.68678
H          2.24599        0.46935       -0.49421
H          2.62719       -0.86503       -1.46482
C          2.26696       -1.36700        0.53771
H          3.31325       -1.28557        0.85824
H          2.01570       -2.41232        0.32170
H          1.59262       -0.97888        1.30956
