18
S1-A1-MA1_pm7-243-8707-m062x ∆∆Ee=0 kc/m ∆∆E0=0 kc/m ∆∆G(298K)= 0.54 kc/m
S          1.07259       -0.12231       -0.04753
O          0.27781       -0.11256        1.22175
O          0.47566       -1.07005       -1.08552
O          1.41465        1.22389       -0.61699
O          2.52283       -0.81392        0.39472
H         -0.46843        2.17966       -0.25233
H          3.16108       -0.50298       -0.27184
N         -2.08402       -0.47574       -0.63631
H         -1.10649       -0.80399       -0.91025
H         -2.70476       -0.54999       -1.44350
C         -2.58157       -1.26014        0.52576
H         -2.67601       -2.31476        0.23960
H         -3.55560       -0.86893        0.84611
H         -1.83675       -1.15388        1.32257
N         -1.41847        2.14408        0.13829
H         -1.85865        3.04552       -0.04399
H         -1.26854        2.07983        1.14703
H         -1.96497        0.55093       -0.37867
