27
S1-DMA2_pm7-192-17547 ∆∆Ee=0.55 kc/m ∆∆E0=0.56 kc/m ∆∆G(298K)= 0.11 kc/m
S          1.84672       -0.32645       -0.06175
O          2.54765       -1.41078       -0.76877
O          0.83529       -0.70886        0.96771
O          3.00156        0.45797        0.88023
O          1.30679        0.75178       -0.98654
H          3.80409        0.51416        0.32864
H         -0.12345        1.26408       -0.53821
N         -1.90216       -1.14345        0.14593
C         -1.98647       -1.86288       -1.13329
C         -2.94477       -1.54690        1.09624
H         -0.96853       -1.31213        0.55466
H         -2.91486       -1.58908       -1.65721
H         -1.13154       -1.58709       -1.76530
H         -1.97804       -2.96043       -1.00279
H         -3.93483       -1.26223        0.70925
H         -2.95307       -2.63714        1.28123
H         -2.78915       -1.03635        2.05622
N         -1.11085        1.48453       -0.16324
C         -1.85869        2.31236       -1.13355
C         -0.96554        2.09229        1.18219
H         -1.56601        0.49097       -0.05812
H         -1.35318        3.27678       -1.27003
H         -1.89607        1.78919       -2.09620
H         -2.88069        2.48589       -0.77179
H         -0.44427        3.05435        1.09992
H         -1.95496        2.24766        1.63208
H         -0.36940        1.40687        1.79615
