21
S1-MA2_dftb-23-5336-m062x ∆∆Ee=0.47 kc/m ∆∆E0=0.48 kc/m ∆∆G(298K)= 0.51 kc/m
S          1.32644       -0.22247       -0.05610
O          0.66591        0.17511        1.22787
O          0.94903       -1.57474       -0.59112
O          1.23811        0.87626       -1.11077
O          2.94149       -0.32292        0.34290
H         -0.29515        1.40637       -0.91037
H          3.33303       -0.89494       -0.34111
N         -1.93427       -0.98676        0.24518
H         -1.76709       -0.96028        1.25305
H         -1.09910       -1.45823       -0.12453
C         -3.14665       -1.77154       -0.05917
H         -3.10950       -2.80372        0.32640
H         -3.27991       -1.81759       -1.14975
H         -4.02785       -1.27249        0.37034
N         -1.30043        1.57484       -0.60827
H         -1.66405        0.60293       -0.30884
H         -1.84027        1.91358       -1.40585
C         -1.33939        2.52402        0.53587
H         -2.37365        2.63859        0.88522
H         -0.94045        3.49644        0.22189
H         -0.70771        2.09768        1.32357
