21
S1-MA2_dftb-121-7451-m062x ∆∆Ee=1.71 kc/m ∆∆E0=0.46 kc/m ∆∆G(298K)= 1.11 kc/m
S         -0.00000       -0.88833       -0.00001
O         -1.20980       -1.61537        0.45023
O          1.20980       -1.61537       -0.45026
O         -0.40638        0.11234       -1.19935
O          0.40637        0.11232        1.19935
H         -1.42230        0.35392       -1.04614
H          1.42230        0.35390        1.04614
N         -2.89340        0.57850       -0.60720
H         -3.18065       -0.38139       -0.40458
H         -3.56267        0.96571       -1.27188
C         -2.87549        1.36661        0.64712
H         -3.85637        1.40873        1.14613
H         -2.54659        2.38979        0.41811
H         -2.14408        0.91087        1.32736
N          2.89340        0.57849        0.60720
H          3.56267        0.96569        1.27189
H          3.18065       -0.38139        0.40456
C          2.87549        1.36663       -0.64711
H          2.54659        2.38979       -0.41809
H          2.14407        0.91089       -1.32735
H          3.85637        1.40875       -1.14611
