14
S1-MA1_BustosTS2014-CartesianCoordinates-S1-MMA-W0-i2-pw91 ∆∆Ee=0.08 kc/m ∆∆E0=0 kc/m ∆∆G(298K)= 0 kc/m
S         -0.83950        0.17422       -0.03497
O         -1.94134       -1.08653        0.00321
O         -0.05557       -0.04113        1.23345
O          0.03603       -0.12199       -1.26430
O         -1.63577        1.41895       -0.15825
H         -2.71468       -0.75214       -0.48477
H          1.35623       -0.60167       -0.71249
N          2.19451       -0.75615       -0.02870
H          2.75337       -1.57483       -0.26914
H          1.67295       -0.90137        0.85059
C          2.99218        0.49685        0.05121
H          3.43427        0.70114       -0.93102
H          3.77784        0.40038        0.81034
H          2.29822        1.30036        0.32349
