14
s2-1-wb97xd.log
S          1.75251        0.02715       -0.08526
O          3.36249        0.10636       -0.19981
O          1.24804        1.35814       -0.47670
O          1.63320       -0.18988        1.50723
O          1.25881       -1.17975       -0.79732
H          3.70317       -0.80907       -0.18226
H          0.64938       -0.24130        1.66469
S         -1.94419       -0.02240        0.11003
O         -1.55277       -1.12576       -1.01576
O         -3.39175       -0.05840        0.26420
O         -1.57582        1.39056       -0.59929
O         -1.03129       -0.21058        1.27747
H         -0.57313       -1.25253       -0.98232
H         -0.59430        1.49838       -0.56397
