14
s2-4-wb97xd.log
S          0.04570        2.08012       -0.03688
O         -1.18126        1.37156       -0.79948
O          1.20192        1.15080        0.04042
O         -0.47298        2.14891        1.51836
O          0.16837        3.43137       -0.58574
H         -1.22049        0.41683       -0.49983
H         -1.08524        2.90742        1.57536
S         -0.04570       -2.08012       -0.03688
O          0.47298       -2.14891        1.51836
O         -0.16837       -3.43137       -0.58574
O          1.18126       -1.37156       -0.79948
O         -1.20192       -1.15080        0.04042
H          1.08524       -2.90742        1.57536
H          1.22049       -0.41683       -0.49983
