28
S2-A1-DMA1_EFP-D-30-pw91 ∆∆Ee=0.31 kc/m ∆∆E0=0.27 kc/m ∆∆G(298K)= 0.19 kc/m
O          3.52186        0.03895       -0.84641
H          4.20386       -0.24599       -0.21128
S          2.06425       -0.33625       -0.14637
O          2.15353       -1.80449        0.19757
O          1.09929        0.00987       -1.24589
O          1.92506        0.54832        1.06825
O         -1.22142       -1.45251       -1.14845
H         -0.38615       -0.93973       -1.30851
S         -2.19038       -0.46978       -0.21162
O         -1.40059       -0.33938        1.10563
O         -3.45064       -1.23101       -0.10118
O         -2.23292        0.87375       -0.90039
N         -0.20145        2.21901        0.32920
C         -0.84975        2.84741        1.50549
C          0.47140        3.17562       -0.58278
H          0.50138        1.52284        0.65352
H         -1.61277        3.55529        1.15563
H         -1.31816        2.04958        2.09365
H         -0.08976        3.37293        2.09921
H         -0.27309        3.88272       -0.97193
H          1.25151        3.71352       -0.02770
H          0.91917        2.60120       -1.40242
H         -0.93383        1.68239       -0.20001
N         -0.21075       -2.68169        1.25271
H         -0.74450       -1.75314        1.33918
H         -0.16722       -3.18762        2.13556
H         -0.69414       -3.23481        0.54186
H          0.74774       -2.43943        0.90023
