25
S2-A1-MA1_pm7-D-143-1264-wb97xd ∆∆Ee=0.13 kc/m ∆∆E0=0.64 kc/m ∆∆G(298K)= 2.25 kc/m
O          1.09391       -1.45856       -1.03458
H          0.26335       -0.94887       -1.23642
S          2.11155       -0.39138       -0.26078
O          1.36679       -0.07099        1.04944
O          2.16378        0.85316       -1.11714
O          3.35956       -1.16127       -0.08944
O         -3.64004        0.22119       -0.67672
H         -3.85513       -0.46596       -1.33368
S         -2.12032       -0.13892       -0.12106
O         -1.19172        0.01121       -1.30463
O         -2.20848       -1.55588        0.39452
O         -1.90945        0.90836        0.93366
N          0.13844       -2.34775        1.53717
H          0.69426       -1.43062        1.48850
H         -0.81430       -2.13086        1.15270
H          0.60384       -3.01186        0.91526
H          0.08298       -2.71818        2.48431
C          0.91179        3.10351        1.09285
H          1.72449        3.72419        0.69709
H          0.18727        3.72192        1.63638
H          1.31972        2.32278        1.74392
N          0.22956        2.41380       -0.03452
H         -0.16734        3.07168       -0.70757
H          0.91986        1.79409       -0.53842
H         -0.54895        1.81316        0.31741
