34
S2-DMA2_pm7-D-126-10085-wb97xd ∆∆Ee=0.54 kc/m ∆∆E0=0.46 kc/m ∆∆G(298K)= 0.33 kc/m
O         -2.67420       -2.24248       -1.19457
H         -2.62117       -3.16982       -0.90054
S         -1.24274       -1.53860       -0.72980
O         -1.25091       -0.26549       -1.52796
O         -0.16511       -2.53085       -1.08387
O         -1.33993       -1.29178        0.76109
O          1.33617        0.70746       -1.63593
H          0.39361        0.41175       -1.72007
S          1.36772        1.82048       -0.39587
O          0.19736        2.75043       -0.63132
O          2.72617        2.39339       -0.47124
O          1.09294        0.97401        0.85923
N          1.97014       -1.49053        0.38918
C          3.34957       -1.39676       -0.15043
C          1.85345       -2.25949        1.65177
H          1.61100       -0.50517        0.56305
H          3.72782       -2.40580       -0.36334
H          3.31655       -0.79137       -1.06377
H          3.98492       -0.90295        0.59670
H          2.20121       -3.28837        1.48766
H          2.46800       -1.77228        2.42057
H          0.79715       -2.25828        1.94828
H          1.32091       -1.90768       -0.30761
N         -1.74536        1.51000        0.82710
C         -1.59076        2.03999        2.20358
C         -3.10511        1.68124        0.25980
H         -1.03634        1.98332        0.20858
H         -2.28804        1.51696        2.87202
H         -0.55278        1.86893        2.51132
H         -1.81023        3.11590        2.19704
H         -3.82964        1.15779        0.89811
H         -3.34212        2.75269        0.21977
H         -3.10809        1.24958       -0.74779
H         -1.50147        0.49823        0.82030
