24
S2-DMA1_pm7-S-216-11838 ∆∆Ee=0.23 kc/m ∆∆E0=0.07 kc/m ∆∆G(298K)= 0 kc/m
S         -2.21656       -0.41349       -0.43331
O         -3.66111       -0.41223       -0.64791
O         -1.38591        0.73235       -0.93185
O         -1.94965       -0.57567        1.15175
O         -1.62771       -1.77167       -1.06743
H         -0.95504       -0.50950        1.29631
H         -0.63581       -1.78340       -0.91110
O          2.56147       -1.79730        1.41582
H          2.87998       -2.53119        0.85901
S          1.60880       -0.87117        0.43384
O          2.50548        0.15700       -0.20368
O          0.64390       -0.23135        1.40908
O          0.98305       -1.83524       -0.53923
N          0.71826        2.24555       -0.13467
C          0.64741        2.98598        1.15007
C          0.80514        3.11019       -1.33848
H          1.52195        1.57532       -0.12100
H         -0.24862        3.62057        1.14668
H          0.59479        2.25036        1.96095
H          1.54744        3.60577        1.25552
H         -0.08871        3.74532       -1.38745
H          1.70898        3.72974       -1.27233
H          0.85214        2.46401       -2.22347
H         -0.11809        1.63102       -0.23673
