24
S2-DMA1_pm7-S-131-16508 ∆∆Ee=0 kc/m ∆∆E0=0 kc/m ∆∆G(298K)= 0.51 kc/m
S          2.21227       -0.42049       -0.43888
O          1.37752        0.71619       -0.95174
O          3.65700       -0.41639       -0.65285
O          1.94158       -0.56396        1.14696
O          1.62878       -1.78801       -1.05751
H          0.94433       -0.49217        1.28836
H          0.64080       -1.81131       -0.87745
O         -2.70698       -1.71897        1.35646
H         -2.29752       -2.58539        1.53513
S         -1.61292       -0.87813        0.45154
O         -0.95879       -1.90171       -0.43752
O         -0.64030       -0.23350        1.42872
O         -2.46616        0.15029       -0.22906
N         -0.69514        2.24941       -0.11744
C         -0.61405        2.98690        1.16817
C         -0.80090        3.11618       -1.31836
H          0.14185        1.63789       -0.23212
H         -1.51587        3.60205        1.28496
H         -0.54924        2.24970        1.97673
H          0.27866        3.62608        1.15677
H         -1.70765        3.73005       -1.24045
H          0.08843        3.75690       -1.37628
H         -0.85456        2.47136       -2.20398
H         -1.49399        1.57427       -0.09951
