40
S2-TMA2_pm7-D-182-14467-pw91 ∆∆Ee=0 kc/m ∆∆E0=0 kc/m ∆∆G(298K)= 0 kc/m
O         -0.96904        1.21808        1.14063
H         -0.23119        0.55209        1.30088
S         -0.69426        1.76444       -0.41274
O         -1.02851        0.52978       -1.27240
O          0.76718        2.09948       -0.48884
O         -1.66351        2.87192       -0.57981
O          0.96904       -1.21808       -1.14062
H          0.23119       -0.55209       -1.30087
S          0.69426       -1.76444        0.41275
O          1.66351       -2.87192        0.57983
O         -0.76718       -2.09948        0.48885
O          1.02851       -0.52978        1.27242
N          3.12089        0.62595       -0.16979
C          3.89050       -0.60972        0.15504
H          4.96069       -0.39035        0.02967
H          3.56862       -1.40950       -0.52131
H          3.66116       -0.89956        1.18649
C          3.45991        1.73607        0.76275
H          4.53179        1.96053        0.66646
H          3.22643        1.40256        1.78187
H          2.84379        2.60367        0.50229
C          3.30257        1.01545       -1.59507
H          4.36865        1.22664       -1.76292
H          2.68380        1.89718       -1.79262
H          2.97134        0.17496       -2.21687
H          2.11490        0.41377       -0.00915
N         -3.12089       -0.62595        0.16981
C         -3.45991       -1.73607       -0.76274
H         -4.53179       -1.96053       -0.66644
H         -2.84379       -2.60367       -0.50227
H         -3.22642       -1.40256       -1.78186
C         -3.89050        0.60972       -0.15503
H         -4.96069        0.39035       -0.02965
H         -3.66116        0.89956       -1.18647
H         -3.56862        1.40950        0.52132
C         -3.30257       -1.01545        1.59509
H         -4.36865       -1.22664        1.76293
H         -2.97135       -0.18025        2.21689
H         -2.68380       -1.89718        1.79263
H         -2.11490       -0.41377        0.00916
