33
../443-3 ∆∆E[~CCSD(T)/CBS] = 1.47 kcal/mol
O     3.648408     1.204224     0.198503
H     4.601008     1.081624     0.108306
H     3.399305     0.803433     1.067326
O     1.403687     2.829185     1.287419
H     2.213031     2.770118     0.754664
H     0.687560     2.797083     0.630164
O    -0.693252     1.816776    -0.414504
H    -1.332016     1.603307    -1.123056
H    -1.080174     1.400409     0.383595
O    -2.418530     0.456852    -2.198394
H    -2.816454    -0.099970    -1.476192
H    -3.154729     0.723005    -2.762948
O    -1.531971     0.280768     1.780240
H    -1.564204     0.536760     2.710460
H    -0.768450    -0.346958     1.687879
O    -3.159853    -1.079218    -0.127275
H    -2.609376    -1.883788    -0.196138
H    -2.810383    -0.630141     0.664937
O     2.370514     0.422279     2.463839
H     1.811848     1.202466     2.271302
H     1.802817    -0.343315     2.273483
O    -1.118545    -3.030846    -0.518231
H    -1.155528    -3.968307    -0.744539
H    -0.812771    -2.563319    -1.343531
O     1.385880     0.090141    -0.997003
H     0.740495     0.815200    -0.831482
H     2.266275     0.463928    -0.788824
O    -0.334475    -1.491311    -2.562243
H     0.427430    -0.982474    -2.223212
H    -1.033103    -0.816402    -2.660970
O     0.482125    -1.381584     1.135413
H     0.870155    -0.929717     0.346971
H     0.032248    -2.159825     0.751883
