33
../44p3pA-8 ∆∆E[~CCSD(T)/CBS] = 0.92 kcal/mol
O     0.018859     2.777909    -0.381960
H    -0.095931     3.697740    -0.649988
H     0.828385     2.450103    -0.859591
O    -0.448095     1.604300     2.152434
H    -0.241360     2.167229     1.382198
H    -1.365809     1.290322     1.972256
O    -2.778014    -2.116202     1.971924
H    -2.019165    -2.183463     1.352653
H    -3.378481    -2.828505     1.721328
O     2.024898     1.598359    -1.683186
H     1.572392     1.033714    -2.339924
H     2.459429     0.961175    -1.083267
O     3.009811    -0.409129     0.092155
H     3.927154    -0.413025     0.392591
H     2.464295    -0.389170     0.913246
O    -2.938567     0.643219     1.392196
H    -3.061214    -0.284792     1.678199
H    -2.828181     0.564217     0.430930
O     1.186970    -0.428059     2.136784
H     1.328966    -0.727253     3.043749
H     0.586109     0.379537     2.208377
O    -0.563500    -1.721357     0.339012
H    -0.885770    -0.913110    -0.125225
H     0.030332    -1.367798     1.033908
O     0.434200    -0.244765    -3.178187
H     0.810127    -1.037557    -2.706871
H     0.424171    -0.474585    -4.115360
O     1.419619    -2.172133    -1.606017
H     0.705108    -2.225896    -0.935500
H     2.140136    -1.743343    -1.109768
O    -1.426801     0.469967    -1.148076
H    -1.009741     0.252612    -2.004171
H    -1.030107     1.334435    -0.915963
