33
../44p3pA-12 ∆∆E[~CCSD(T)/CBS] = 1.17 kcal/mol
O    -0.583676    -0.134861    -2.955066
H     0.357699     0.116253    -2.941301
H    -0.638757    -0.823662    -2.261032
O     0.433084     2.259250     1.650313
H     0.414665     3.061381     2.186322
H     0.626674     2.555950     0.721053
O     2.112632     0.673092    -2.204187
H     2.940218     0.775230    -2.690246
H     2.285715    -0.020701    -1.525684
O    -1.853755     1.897691    -1.759367
H    -1.474462     1.155423    -2.303221
H    -2.541417     2.299649    -2.304119
O    -1.021622    -3.605153     1.148954
H    -1.747279    -4.226102     1.283344
H    -1.095012    -2.944834     1.883648
O     0.721217     2.834479    -0.943487
H    -0.173165     2.676946    -1.303633
H     1.279571     2.173261    -1.395751
O     2.096586    -1.237408    -0.232996
H     1.128489    -1.451847    -0.343488
H     2.551477    -2.088366    -0.285331
O    -1.084623    -1.493901     2.848834
H    -0.181463    -1.103817     2.801299
H    -1.625781    -0.839665     2.379071
O    -1.659616     0.591861     0.762192
H    -1.011953     1.199066     1.175860
H    -1.980393     1.094234    -0.011558
O     1.409314    -0.298825     2.468177
H     1.801547    -0.631200     1.641785
H     1.225052     0.638567     2.271963
O    -0.534435    -1.553412    -0.555482
H    -0.940292    -0.825022    -0.026282
H    -0.822387    -2.378708    -0.100409
