33
../44p3pB-9 ∆∆E[~CCSD(T)/CBS] = 1.13 kcal/mol
O     2.818462    -1.002714    -0.975406
H     3.671532    -0.956643    -1.424235
H     2.195357    -0.458971    -1.528817
O     0.219610     1.529547     1.214314
H     0.315667     2.042595     0.389013
H    -0.366850     0.791242     0.928578
O    -1.829171     3.232669     2.082362
H    -2.053276     3.250074     3.020395
H    -1.028982     2.670246     2.012882
O    -0.882580    -1.848609    -1.935989
H    -0.211604    -2.465121    -1.530216
H    -1.459107    -2.396895    -2.481904
O    -1.460758    -0.588887     0.506892
H    -1.364910    -1.022517    -0.367077
H    -1.099422    -1.249794     1.130439
O    -2.777522     1.903925    -0.205935
H    -2.631527     0.990424     0.097607
H    -2.704005     2.421171     0.621763
O     2.163106    -0.434107     1.730005
H     1.642413     0.386340     1.605928
H     2.553792    -0.585452     0.846886
O     0.941089     0.257860    -2.408638
H     0.236841    -0.416422    -2.452698
H     0.483133     1.067606    -2.108075
O    -0.407053     2.516136    -1.361333
H    -0.443553     3.356147    -1.834909
H    -1.334897     2.345218    -1.047545
O     0.267814    -2.294474     1.956598
H     1.011332    -1.628530     1.990147
H     0.282085    -2.751098     2.806599
O     1.021189    -3.183507    -0.644867
H     0.787203    -3.075848     0.297880
H     1.785452    -2.585329    -0.764143
