33
../4X-3 ∆∆E[~CCSD(T)/CBS] = 1.27 kcal/mol
O    -0.623876    -1.321850     0.080219
H    -0.213433    -0.441342    -0.092586
H     0.074443    -1.818191     0.553177
O     0.235278     1.256151    -0.498977
H    -0.677389     1.651377    -0.441923
H     0.769581     1.654001     0.216440
O     0.482977     0.052581     3.089885
H    -0.459690     0.068481     2.835401
H     0.805112    -0.816926     2.786031
O    -2.181917    -0.046631     1.904162
H    -1.788778    -0.670632     1.247346
H    -2.926638    -0.517735     2.299281
O    -2.327188     1.946729    -0.283471
H    -2.549192     1.395930     0.487705
H    -2.698428     1.457783    -1.050097
O     3.051606    -0.529399     0.092157
H     2.893809     0.321607     0.543148
H     2.710844    -0.396464    -0.813429
O     1.567236    -2.159342     1.605070
H     1.994117    -3.001190     1.804763
H     2.208705    -1.654131     1.036686
O     1.994914     1.677522     1.595511
H     1.449874     1.159188     2.246756
H     2.359005     2.424154     2.086070
O    -0.908886    -1.369389    -2.743227
H    -0.029583    -0.981572    -2.896103
H    -0.863357    -1.618236    -1.799654
O    -3.035533     0.340292    -2.423953
H    -3.497561     0.513666    -3.251921
H    -2.279360    -0.246962    -2.659879
O     1.670237     0.070752    -2.409201
H     1.130036     0.688712    -1.859507
H     2.090993     0.619559    -3.083225
