33
../515A-8 ∆∆E[~CCSD(T)/CBS] = 0.89 kcal/mol
O    -1.176017    -0.940842     2.654820
H    -1.679584    -1.387981     3.345745
H    -0.656577    -1.653497     2.191049
O    -2.148953     0.832420     0.696903
H    -2.195922     0.366409    -0.159087
H    -1.932125     0.145141     1.358170
O    -0.168243     2.624614     0.851637
H    -0.508632     3.501386     1.069229
H    -0.968635     2.039526     0.770355
O     0.961094     2.060917    -1.718374
H     0.653386     2.349749    -0.838406
H     1.424871     1.209139    -1.550177
O    -1.124656     1.544680    -3.261648
H    -0.317700     1.784340    -2.719649
H    -0.812557     1.499723    -4.173354
O     0.373936    -2.640524     1.305724
H     1.250149    -2.210181     1.368083
H     0.158907    -2.614102     0.353889
O    -0.183035    -2.262991    -1.464910
H    -0.195378    -2.970908    -2.120891
H    -0.961760    -1.697231    -1.673762
O     2.080512    -0.432067    -1.300345
H     2.385138    -0.577330    -0.384179
H     1.372007    -1.088909    -1.420083
O     1.050499     0.861935     2.711244
H     0.729833     1.581231     2.130887
H     0.248830     0.333948     2.887975
O     2.602172    -0.911037     1.457514
H     3.464660    -0.984391     1.883605
H     2.114446    -0.196392     1.951233
O    -2.186214    -0.443471    -1.888587
H    -1.831372     0.274275    -2.487651
H    -3.086715    -0.611582    -2.193714
