33
../515A-10 ∆∆E[~CCSD(T)/CBS] = 0.93 kcal/mol
O     3.102675     0.145039    -0.294986
H     4.037117     0.103154    -0.531819
H     2.863702    -0.758592     0.019241
O    -0.537698    -2.358058    -0.481894
H     0.401495    -2.384231    -0.217593
H    -0.560170    -1.813457    -1.293365
O     1.739454     1.550867     1.877769
H     1.052226     2.029494     1.373456
H     2.353492     1.240450     1.189691
O    -3.212152     0.296168    -2.051711
H    -2.351447     0.002972    -2.418421
H    -3.601664     0.854807    -2.735127
O    -0.650546    -0.588643    -2.701729
H    -0.380919    -0.873563    -3.583692
H     0.003954     0.120159    -2.438664
O    -1.772593    -1.238379     1.615409
H    -2.470873    -1.815270     1.949356
H    -1.399033    -1.704266     0.819403
O     0.846704    -0.925807     2.700777
H     1.090116     0.014062     2.528918
H    -0.110046    -0.978058     2.512242
O     2.050895    -2.162403     0.730238
H     2.532740    -2.935766     1.049368
H     1.621812    -1.753513     1.546154
O     1.038795     1.281311    -1.885401
H     0.601831     1.868582    -1.233722
H     1.800557     0.906890    -1.402348
O    -2.456512     1.254564     0.468628
H    -2.808177     0.967421    -0.399640
H    -2.292690     0.416440     0.945593
O    -0.245336     2.671188     0.180103
H    -0.480426     3.605967     0.226827
H    -1.104467     2.172680     0.303676
