33
../515B-5 ∆∆E[~CCSD(T)/CBS] = 1.01 kcal/mol
O     1.557524     0.086270    -1.601460
H     2.150629     0.351247    -0.872103
H     1.034662    -0.645621    -1.208722
O    -1.232646     2.797314     0.529090
H    -0.470896     2.571862     1.129376
H    -1.415364     3.732637     0.680125
O    -0.800411    -0.361549     2.940432
H    -1.217792    -0.638981     3.765007
H    -1.548632    -0.146866     2.318777
O    -2.303811    -0.678431    -1.430759
H    -1.823998     0.147250    -1.727583
H    -3.003529    -0.824001    -2.079635
O    -0.861830     1.490474    -1.954175
H     0.063102     1.170717    -1.910550
H    -0.951554     2.069694    -1.171574
O     0.685321     1.953596     2.186729
H     1.480670     1.556346     1.781053
H     0.252345     1.201621     2.635201
O     2.737108     0.401357     0.957650
H     2.270567    -0.444052     1.206779
H     3.642301     0.306588     1.278746
O     0.003973    -2.183499    -1.004317
H     0.370094    -2.511151    -1.846568
H    -0.885196    -1.830818    -1.218230
O    -2.649496     0.415945     1.181051
H    -2.351204     1.316620     0.947651
H    -2.663545    -0.054899     0.325126
O     1.215403    -1.717666     1.515373
H     0.781278    -2.045859     0.704459
H     0.479563    -1.382406     2.066155
O     1.475630    -2.084179    -3.407803
H     1.827207    -1.253644    -3.035378
H     2.200553    -2.468423    -3.914674
