33
../515B-2 ∆∆E[~CCSD(T)/CBS] = 0.92 kcal/mol
O     0.899468     1.802143    -0.995523
H     0.834755     2.052923    -0.050202
H     0.074518     1.290836    -1.140149
O     2.358009    -1.830042     0.974893
H     2.438121    -1.363173     0.097485
H     3.210643    -2.256169     1.124922
O    -0.915448     3.158664    -2.717723
H    -0.071050     2.997727    -2.255401
H    -0.684779     3.641310    -3.520224
O     2.287452    -0.615449    -1.395603
H     1.979235     0.307409    -1.270461
H     1.534441    -1.037521    -1.849024
O    -0.220693    -2.875325     0.383461
H     0.715146    -2.701471     0.604010
H    -0.309902    -2.550122    -0.533918
O    -2.225430     0.984112     0.941846
H    -1.489766     1.522869     1.289164
H    -2.131725     0.133936     1.415757
O     0.306449     2.154308     1.723141
H     0.512528     2.877327     2.328034
H     0.615085     1.323101     2.178520
O    -1.562311    -1.467725     2.209563
H    -2.135166    -2.040565     2.733798
H    -1.153734    -2.054462     1.516626
O    -1.585341     0.627432    -1.640837
H    -1.733157     1.443267    -2.152481
H    -1.962340     0.773399    -0.734122
O    -0.297975    -1.672411    -2.194990
H    -0.627178    -2.125914    -2.980737
H    -0.858554    -0.864507    -2.101163
O     0.923302    -0.201342     2.797454
H     1.514200    -0.746026     2.239893
H     0.075390    -0.686173     2.785447
