33
../55p1A-2 ∆∆E[~CCSD(T)/CBS] = 0.39 kcal/mol
O     2.782985    -10.259089    -0.105270
H     2.302300    -10.355604    -0.950980
H     2.621338    -9.332777     0.148603
O    -0.435694    -10.747671     2.488137
H     0.396125    -11.234617     2.289525
H    -0.178330    -9.808588     2.513006
O     1.230808    -10.290190    -2.480973
H     0.271196    -10.484415    -2.297343
H     1.453006    -10.799451    -3.269869
O    -2.321681    -10.881713     0.642938
H    -1.613009    -10.935961     1.346756
H    -2.987976    -11.532769     0.894719
O    -0.014352    -7.894352     2.227974
H     0.741443    -7.671275     1.634778
H     0.074696    -7.308389     2.989842
O    -2.420559    -8.059067     0.691067
H    -2.558511    -9.026512     0.744275
H    -1.642192    -7.905584     1.260789
O     0.923920    -7.519886    -2.011047
H    -0.053176    -7.458616    -2.020655
H     1.106224    -8.419217    -2.349475
O    -1.877127    -7.676953    -1.882292
H    -2.124978    -7.720255    -0.917490
H    -2.532926    -7.104878    -2.298837
O    -1.378765    -10.501306    -1.992365
H    -1.687818    -9.581081    -2.089973
H    -1.683922    -10.758115    -1.098544
O     1.987236    -7.497960     0.403614
H     1.578122    -7.428094    -0.508571
H     2.653080    -6.799595     0.437080
O     1.846679    -12.046119     1.707573
H     2.573068    -12.343074     2.267883
H     2.254790    -11.424829     1.056126
