22
Acenaphthene MP2/aVDZ
C -1.280292 -1.943183 0.000012
C 0.000001 -1.310331 -0.000013
C 0.000003 0.115460 -0.000011
C -1.178058 0.906990 -0.000008
C -2.412008 0.262449 0.000013
C -2.444899 -1.167887 0.000015
H -1.350827 -3.036109 -0.000020
H -3.351971 0.824237 0.000025
H -3.416644 -1.672246 0.000017
C 1.280312 -1.943170 0.000002
C 2.444905 -1.167876 -0.000008
C 2.412009 0.262470 -0.000007
C 1.178056 0.907000 0.000002
H 1.350851 -3.036096 -0.000021
H 3.416663 -1.672217 -0.000015
H 3.351963 0.824263 0.000009
C -0.785708 2.378875 -0.000056
H -1.187562 2.895460 -0.886862
H -1.187711 2.895583 0.886615
C 0.785680 2.378887 0.000058
H 1.187687 2.895610 -0.886601
H 1.187538 2.895463 0.886876
