34
Acenaphthene-(H2O)4  Isomer EFP-9
C      -0.672072     -0.171448      0.742434
C       0.261537     -0.737260      1.660632
C       0.852235      0.162942      2.599225
C       0.506777     -2.138865      1.531508
C       0.490045      1.516820      2.592796
C      -0.157265     -2.876135      0.540699
C      -0.467151      2.050053      1.670202
C      -1.078479     -2.274550     -0.374932
C      -1.054456      1.196212      0.739287
C      -1.339492     -0.910644     -0.269136
C      -2.100960      1.416873     -0.342518
C      -2.212189      0.035502     -1.079108
H      -1.795796      2.217379     -1.031961
H      -1.826766      0.100962     -2.108667
H      -3.063632      1.703154      0.112917
H      -3.253765     -0.319515     -1.133188
H      -0.719079      3.114632      1.709950
H      -1.556174     -2.890171     -1.143467
H       0.952966      2.190918      3.320766
H       0.041399     -3.949898      0.460118
H       1.586105     -0.203002      3.324896
H       1.209445     -2.638419      2.206790
O       0.371732     -0.454842     -3.196909
H       0.756135     -0.723571     -4.040912
H       0.994770     -0.817525     -2.511852
O       2.251316      1.380369     -0.280058
H       1.830219      1.461478      0.589969
H       1.593879      1.764361     -0.899720
O       0.418025      2.127843     -2.271241
H       0.780003      2.737254     -2.927235
H       0.389118      1.254681     -2.730275
O       2.080647     -1.191214     -1.250938
H       2.234216     -0.315628     -0.821202
H       1.620865     -1.708564     -0.570852

