9
(H2O)3-UUD MP2/aVDZ
O     -0.047198    -0.650040     1.481385
H      0.032034    -1.089768     0.611613
H      0.622626    -1.065203     2.037977
O     -0.052919    -0.954488    -1.306025
H     -0.005581     0.019622    -1.225740
H      0.598764    -1.184951    -1.979122
O      0.062552     1.607341    -0.174528
H      0.024820     1.053295     0.630923
H     -0.676367     2.222340    -0.088864
